minlp-notes/research-20261001/scip-set-selection/logs/root/powerflow0030r.corner.s0.log
SCIP version 10.0.3 [precision: 8 byte] [memory: block] [mode: optimized] [LP solver: SoPlex 8.0.3] [GitHash: d409edf9f6]
Copyright (c) 2002-2026 Zuse Institute Berlin (ZIB)

External libraries: 
  Readline 8.3         GNU library for command line editing (gnu.org/s/readline)
  SoPlex 8.0.3         Linear programming solver developed at Zuse Institute Berlin (soplex.zib.de) [GitHash: 13e2ab24]
  CppAD 20180000.0     Algorithmic Differentiation of C++ algorithms developed by B. Bell (github.com/coin-or/CppAD)
  ZLIB 1.3.2           General purpose compression library by J. Gailly and M. Adler (zlib.net)
  LAPACK 3.12.0        General Linear Algebra PACKage (http://www.netlib.org/lapack/)
  MPFR 4.2.2           GNU Multiple Precision Floating-Point Reliable Library (mpfr.org)
  Boost 1.85.0         Boost C++ Libraries (boost.org)
  TinyCThread 1.2      small portable implementation of the C11 threads API (tinycthread.github.io)
  GMP 6.3.0            GNU Multiple Precision Arithmetic Library developed by T. Granlund (gmplib.org)
  AMPL/MP 4.0.4        AMPL .nl file reader library (github.com/ampl/mp)
  Nauty 2.8.8          Computing Graph Automorphism Groups by Brendan D. McKay (users.cecs.anu.edu.au/~bdm/nauty)
  sassy 2.1            Symmetry preprocessor by Markus Anders (github.com/markusa4/sassy)

user parameter file <scip.set> not found - using default parameters

table/nlhdlr_quadratic/active = TRUE
limits/memory = 6000
limits/time = 120
timing/clocktype = 1
nlhdlr/quadratic/useintersectioncuts = TRUE
nlhdlr/quadratic/setrule = 1
limits/nodes = 1

read problem </workspace/local-home/.cache/minlplib/minlplib/osil/powerflow0030r.osil>
============

original problem has 237 variables (0 bin, 0 int, 237 cont) and 392 constraints

presolving:
(round 1, fast)       38 del vars, 64 del conss, 0 add conss, 448 chg bounds, 0 chg sides, 0 chg coeffs, 0 upgd conss, 0 impls, 0 clqs, 0 implints
(round 2, fast)       38 del vars, 64 del conss, 0 add conss, 449 chg bounds, 1 chg sides, 0 chg coeffs, 0 upgd conss, 0 impls, 0 clqs, 0 implints
   (0.0s) symmetry computation started: requiring (bin +, int +, cont +), (fixed: bin -, int -, cont -)
   (0.0s) no symmetry present (symcode time: 0.00)
presolving (3 rounds: 3 fast, 1 medium, 1 exhaustive):
 38 deleted vars, 64 deleted constraints, 0 added constraints, 449 tightened bounds, 0 added holes, 1 changed sides, 0 changed coefficients
 0 implications, 0 cliques, 0 implied integral variables (0 bin, 0 int, 0 cont)
presolved problem has 199 variables (0 bin, 0 int, 199 cont) and 298 constraints
     28 constraints of type <linear>
    270 constraints of type <nonlinear>
Presolving Time: 0.03

 time | node  | left  |LP iter|LP it/n|mem/heur|mdpt |vars |cons |rows |cuts |sepa|confs|strbr|  dualbound   | primalbound  |  gap   | compl. 
  0.1s|     1 |     0 |   863 |     - |    10M |   0 | 825 | 298 |1034 |   0 |  0 |   0 |   0 |-1.000000e-09 |      --      |    Inf | unknown
  0.3s|     1 |     0 |  1044 |     - |    12M |   0 | 825 | 298 |1130 |  96 |  1 |   0 |   0 |-1.000000e-09 |      --      |    Inf | unknown
  0.5s|     1 |     0 |  1186 |     - |    13M |   0 | 825 | 298 |1237 | 203 |  2 |   0 |   0 |-1.000000e-09 |      --      |    Inf | unknown
  0.7s|     1 |     0 |  1450 |     - |    14M |   0 | 825 | 298 |1313 | 279 |  3 |   0 |   0 |-1.000000e-09 |      --      |    Inf | unknown
  0.9s|     1 |     0 |  1733 |     - |    16M |   0 | 825 | 298 |1380 | 346 |  4 |   0 |   0 |-1.000000e-09 |      --      |    Inf | unknown
  1.2s|     1 |     0 |  2034 |     - |    16M |   0 | 825 | 298 |1447 | 413 |  5 |   0 |   0 |-1.000000e-09 |      --      |    Inf | unknown
  1.6s|     1 |     0 |  2300 |     - |    18M |   0 | 825 | 298 |1532 | 498 |  6 |   0 |   0 |-1.000000e-09 |      --      |    Inf | unknown
  1.9s|     1 |     0 |  2612 |     - |    21M |   0 | 825 | 298 |1610 | 576 |  7 |   0 |   0 |-1.000000e-09 |      --      |    Inf | unknown
  2.2s|     1 |     0 |  2940 |     - |    22M |   0 | 825 | 298 |1678 | 644 |  8 |   0 |   0 |-1.000000e-09 |      --      |    Inf | unknown
  2.5s|     1 |     0 |  3336 |     - |    24M |   0 | 825 | 298 |1751 | 717 |  9 |   0 |   0 |-1.000000e-09 |      --      |    Inf | unknown
  2.9s|     1 |     0 |  3840 |     - |    25M |   0 | 825 | 298 |1107 | 784 | 10 |   0 |   0 |-1.000000e-09 |      --      |    Inf | unknown
  3.2s|     1 |     0 |  4135 |     - |    26M |   0 | 825 | 298 |1175 | 852 | 11 |   0 |   0 |-1.000000e-09 |      --      |    Inf | unknown
 15.2s|     1 |     0 |133167 |     - |    29M |   0 | 825 | 298 |1267 | 944 | 11 |   0 |   0 |-1.000000e-09 |      --      |    Inf | unknown
 15.4s|     1 |     0 |133986 |     - |    29M |   0 | 825 | 298 |1055 |1001 | 12 |   0 |   0 |-1.000000e-09 |      --      |    Inf | unknown
 15.8s|     1 |     0 |135507 |     - |    29M |   0 | 825 | 298 |1092 |1038 | 13 |   0 |   0 |-1.000000e-09 |      --      |    Inf | unknown
 time | node  | left  |LP iter|LP it/n|mem/heur|mdpt |vars |cons |rows |cuts |sepa|confs|strbr|  dualbound   | primalbound  |  gap   | compl. 
 16.1s|     1 |     0 |136417 |     - |    29M |   0 | 825 | 298 |1149 |1095 | 14 |   0 |   0 |-1.000000e-09 |      --      |    Inf | unknown
 16.6s|     1 |     0 |137950 |     - |    29M |   0 | 825 | 298 |1207 |1153 | 15 |   0 |   0 |-1.000000e-09 |      --      |    Inf | unknown
 17.1s|     1 |     0 |139245 |     - |    29M |   0 | 825 | 298 |1258 |1204 | 16 |   0 |   0 |-1.000000e-09 |      --      |    Inf | unknown
 17.6s|     1 |     0 |141013 |     - |    31M |   0 | 825 | 298 |1304 |1250 | 17 |   0 |   0 |-1.000000e-09 |      --      |    Inf | unknown
 18.1s|     1 |     0 |142991 |     - |    31M |   0 | 825 | 298 |1354 |1300 | 18 |   0 |   0 |-1.000000e-09 |      --      |    Inf | unknown
 18.7s|     1 |     0 |144847 |     - |    31M |   0 | 825 | 298 |1390 |1336 | 19 |   0 |   0 |-1.000000e-09 |      --      |    Inf | unknown
 19.2s|     1 |     0 |146885 |     - |    32M |   0 | 825 | 298 | 902 |1385 | 20 |   0 |   0 |-1.000000e-09 |      --      |    Inf | unknown
 20.0s|     1 |     0 |149694 |     - |    34M |   0 | 825 | 298 |1040 |1523 | 21 |   0 |   0 |-1.000000e-09 |      --      |    Inf | unknown
 20.7s|     1 |     0 |152696 |     - |    34M |   0 | 825 | 298 | 910 |1578 | 22 |   0 |   0 |-1.000000e-09 |      --      |    Inf | unknown
 21.1s|     1 |     0 |155093 |     - |    34M |   0 | 825 | 298 | 995 |1663 | 23 |   0 |   0 |-1.000000e-09 |      --      |    Inf | unknown
 21.4s|     1 |     0 |157553 |     - |    34M |   0 | 825 | 298 |1059 |1727 | 24 |   0 |   0 |-1.000000e-09 |      --      |    Inf | unknown
 21.9s|     1 |     0 |160656 |     - |    34M |   0 | 825 | 298 |1110 |1778 | 25 |   0 |   0 |-1.000000e-09 |      --      |    Inf | unknown
 22.3s|     1 |     0 |163577 |     - |    34M |   0 | 825 | 298 |1162 |1830 | 26 |   0 |   0 |-1.000000e-09 |      --      |    Inf | unknown
 22.9s|     1 |     0 |166864 |     - |    34M |   0 | 825 | 298 | 947 |1854 | 27 |   0 |   0 |-1.000000e-09 |      --      |    Inf | unknown
 23.2s|     1 |     0 |169719 |     - |    34M |   0 | 825 | 298 |1001 |1908 | 28 |   0 |   0 |-1.000000e-09 |      --      |    Inf | unknown
 time | node  | left  |LP iter|LP it/n|mem/heur|mdpt |vars |cons |rows |cuts |sepa|confs|strbr|  dualbound   | primalbound  |  gap   | compl. 
 23.7s|     1 |     0 |172882 |     - |    34M |   0 | 825 | 298 |1061 |1968 | 29 |   0 |   0 |-1.000000e-09 |      --      |    Inf | unknown
 24.1s|     1 |     0 |176459 |     - |    34M |   0 | 825 | 298 |1106 |2013 | 30 |   0 |   0 |-1.000000e-09 |      --      |    Inf | unknown
 24.2s|     1 |     0 |176564 |     - |    34M |   0 | 825 | 298 |1136 |2043 | 31 |   0 |   0 |-1.000000e-09 |      --      |    Inf | unknown
 24.7s|     1 |     0 |180174 |     - |    34M |   0 | 825 | 298 |1215 |2122 | 32 |   0 |   0 |-1.000000e-09 |      --      |    Inf | unknown
 25.1s|     1 |     0 |183122 |     - |    34M |   0 | 825 | 298 | 857 |2150 | 33 |   0 |   0 |-1.000000e-09 |      --      |    Inf | unknown
 25.1s|     1 |     0 |183639 |     - |    34M |   0 | 825 | 298 | 904 |2197 | 34 |   0 |   0 |-1.000000e-09 |      --      |    Inf | unknown
 25.2s|     1 |     0 |184874 |     - |    34M |   0 | 825 | 298 | 995 |2288 | 35 |   0 |   0 |-1.000000e-09 |      --      |    Inf | unknown
 25.3s|     1 |     0 |185982 |     - |    34M |   0 | 825 | 298 |1066 |2359 | 36 |   0 |   0 |-1.000000e-09 |      --      |    Inf | unknown
 25.5s|     1 |     0 |187321 |     - |    34M |   0 | 825 | 298 |1116 |2409 | 37 |   0 |   0 |-1.000000e-09 |      --      |    Inf | unknown
 25.6s|     1 |     0 |188689 |     - |    34M |   0 | 825 | 298 |1178 |2471 | 38 |   0 |   0 |-1.000000e-09 |      --      |    Inf | unknown
 25.8s|     1 |     0 |190164 |     - |    34M |   0 | 825 | 298 | 902 |2511 | 39 |   0 |   0 |-1.000000e-09 |      --      |    Inf | unknown
 25.8s|     1 |     0 |190537 |     - |    34M |   0 | 825 | 298 | 960 |2569 | 40 |   0 |   0 |-1.000000e-09 |      --      |    Inf | unknown
 26.1s|     1 |     0 |194529 |     - |    34M |   0 | 825 | 298 |1123 |2732 | 41 |   0 |   0 |-1.000000e-09 |      --      |    Inf | unknown
 26.2s|     1 |     0 |196016 |     - |    34M |   0 | 825 | 298 |1194 |2803 | 42 |   0 |   0 | 9.271781e+00 |      --      |    Inf | unknown
 26.2s|     1 |     0 |196187 |     - |    34M |   0 | 825 | 298 |1252 |2861 | 43 |   0 |   0 | 9.889051e+00 |      --      |    Inf | unknown
 time | node  | left  |LP iter|LP it/n|mem/heur|mdpt |vars |cons |rows |cuts |sepa|confs|strbr|  dualbound   | primalbound  |  gap   | compl. 
 26.3s|     1 |     0 |196733 |     - |    34M |   0 | 825 | 298 |1318 |2927 | 44 |   0 |   0 | 1.896939e+01 |      --      |    Inf | unknown
 26.3s|     1 |     0 |196895 |     - |    34M |   0 | 825 | 298 |1061 |2980 | 45 |   0 |   0 | 2.120187e+01 |      --      |    Inf | unknown
 26.3s|     1 |     0 |197200 |     - |    34M |   0 | 825 | 298 |1115 |3034 | 46 |   0 |   0 | 2.717909e+01 |      --      |    Inf | unknown
 26.4s|     1 |     0 |197371 |     - |    34M |   0 | 825 | 298 |1083 |3110 | 47 |   0 |   0 | 2.752251e+01 |      --      |    Inf | unknown
 26.4s|     1 |     0 |197633 |     - |    34M |   0 | 825 | 298 |1137 |3164 | 48 |   0 |   0 | 3.494739e+01 |      --      |    Inf | unknown
 26.4s|     1 |     0 |197749 |     - |    34M |   0 | 825 | 298 |1117 |3216 | 49 |   0 |   0 | 3.504522e+01 |      --      |    Inf | unknown
 26.5s|     1 |     0 |198144 |     - |    34M |   0 | 825 | 298 |1175 |3274 | 50 |   0 |   0 | 5.045844e+01 |      --      |    Inf | unknown
 26.5s|     1 |     0 |198362 |     - |    34M |   0 | 825 | 298 |1239 |3338 | 51 |   0 |   0 | 5.119274e+01 |      --      |    Inf | unknown
 26.5s|     1 |     0 |198625 |     - |    34M |   0 | 825 | 298 |1103 |3400 | 52 |   0 |   0 | 5.648294e+01 |      --      |    Inf | unknown
 26.6s|     1 |     0 |198815 |     - |    34M |   0 | 825 | 298 |1162 |3459 | 53 |   0 |   0 | 5.678166e+01 |      --      |    Inf | unknown
 26.6s|     1 |     0 |199088 |     - |    34M |   0 | 825 | 298 |1114 |3518 | 54 |   0 |   0 | 6.100203e+01 |      --      |    Inf | unknown
 26.6s|     1 |     0 |199258 |     - |    34M |   0 | 825 | 298 |1162 |3566 | 55 |   0 |   0 | 6.107908e+01 |      --      |    Inf | unknown
 26.6s|     1 |     0 |199507 |     - |    34M |   0 | 825 | 298 |1206 |3610 | 56 |   0 |   0 | 6.388662e+01 |      --      |    Inf | unknown
 26.7s|     1 |     0 |199553 |     - |    34M |   0 | 825 | 298 |1236 |3640 | 57 |   0 |   0 | 6.391151e+01 |      --      |    Inf | unknown
 26.7s|     1 |     0 |199793 |     - |    34M |   0 | 825 | 298 |1280 |3684 | 58 |   0 |   0 | 6.884468e+01 |      --      |    Inf | unknown
 time | node  | left  |LP iter|LP it/n|mem/heur|mdpt |vars |cons |rows |cuts |sepa|confs|strbr|  dualbound   | primalbound  |  gap   | compl. 
 26.7s|     1 |     0 |199848 |     - |    34M |   0 | 825 | 298 |1312 |3716 | 59 |   0 |   0 | 6.886915e+01 |      --      |    Inf | unknown
 26.8s|     1 |     0 |200308 |     - |    34M |   0 | 825 | 298 |1363 |3767 | 60 |   0 |   0 | 7.796121e+01 |      --      |    Inf | unknown
 26.8s|     1 |     0 |200445 |     - |    35M |   0 | 825 | 298 |1419 |3823 | 61 |   0 |   0 | 7.823845e+01 |      --      |    Inf | unknown
 26.9s|     1 |     0 |200876 |     - |    35M |   0 | 825 | 298 |1470 |3874 | 62 |   0 |   0 | 8.053893e+01 |      --      |    Inf | unknown
 26.9s|     1 |     0 |200952 |     - |    35M |   0 | 825 | 298 |1500 |3904 | 63 |   0 |   0 | 8.059218e+01 |      --      |    Inf | unknown
 26.9s|     1 |     0 |201112 |     - |    35M |   0 | 825 | 298 |1552 |3956 | 64 |   0 |   0 | 8.277770e+01 |      --      |    Inf | unknown
 27.0s|     1 |     0 |201221 |     - |    35M |   0 | 825 | 298 |1571 |3975 | 65 |   0 |   0 | 8.278908e+01 |      --      |    Inf | unknown
 27.0s|     1 |     0 |201841 |     - |    35M |   0 | 825 | 298 |1610 |4014 | 66 |   0 |   0 | 8.923503e+01 |      --      |    Inf | unknown
 27.1s|     1 |     0 |201905 |     - |    35M |   0 | 825 | 298 |1625 |4029 | 67 |   0 |   0 | 8.926705e+01 |      --      |    Inf | unknown
 27.1s|     1 |     0 |202125 |     - |    35M |   0 | 825 | 298 |1659 |4063 | 68 |   0 |   0 | 8.972096e+01 |      --      |    Inf | unknown
 27.1s|     1 |     0 |202221 |     - |    35M |   0 | 825 | 298 |1680 |4084 | 69 |   0 |   0 | 8.974108e+01 |      --      |    Inf | unknown
 27.1s|     1 |     0 |202725 |     - |    35M |   0 | 825 | 298 | 920 |4126 | 70 |   0 |   0 | 9.534063e+01 |      --      |    Inf | unknown
 27.2s|     1 |     0 |202900 |     - |    35M |   0 | 825 | 298 | 983 |4189 | 71 |   0 |   0 | 9.535548e+01 |      --      |    Inf | unknown
 27.2s|     1 |     0 |203015 |     - |    35M |   0 | 825 | 298 | 881 |4230 | 72 |   0 |   0 | 9.564442e+01 |      --      |    Inf | unknown
 27.2s|     1 |     0 |203112 |     - |    35M |   0 | 825 | 298 | 918 |4267 | 73 |   0 |   0 | 9.564758e+01 |      --      |    Inf | unknown
 time | node  | left  |LP iter|LP it/n|mem/heur|mdpt |vars |cons |rows |cuts |sepa|confs|strbr|  dualbound   | primalbound  |  gap   | compl. 
 27.2s|     1 |     0 |203208 |     - |    35M |   0 | 825 | 298 | 874 |4298 | 74 |   0 |   0 | 9.604591e+01 |      --      |    Inf | unknown
 27.3s|     1 |     0 |203272 |     - |    35M |   0 | 825 | 298 | 901 |4325 | 75 |   0 |   0 | 9.604842e+01 |      --      |    Inf | unknown
 27.3s|     1 |     0 |203362 |     - |    35M |   0 | 825 | 298 | 854 |4352 | 76 |   0 |   0 | 9.640194e+01 |      --      |    Inf | unknown
 27.3s|     1 |     0 |203423 |     - |    35M |   0 | 825 | 298 | 887 |4385 | 77 |   0 |   0 | 9.641511e+01 |      --      |    Inf | unknown
 27.3s|     1 |     0 |203598 |     - |    35M |   0 | 825 | 298 | 874 |4431 | 78 |   0 |   0 | 1.034414e+02 |      --      |    Inf | unknown
 27.4s|     1 |     0 |204302 |     - |    35M |   0 | 825 | 298 | 923 |4480 | 79 |   0 |   0 | 1.034652e+02 |      --      |    Inf | unknown
 27.4s|     1 |     0 |204420 |     - |    35M |   0 | 825 | 298 | 961 |4518 | 80 |   0 |   0 | 1.053206e+02 |      --      |    Inf | unknown
 27.5s|     1 |     0 |204573 |     - |    35M |   0 | 825 | 298 | 993 |4550 | 81 |   0 |   0 | 1.053639e+02 |      --      |    Inf | unknown
 27.5s|     1 |     0 |204761 |     - |    35M |   0 | 825 | 298 |1045 |4602 | 82 |   0 |   0 | 1.131840e+02 |      --      |    Inf | unknown
 27.6s|     1 |     0 |204913 |     - |    35M |   0 | 825 | 298 |1090 |4647 | 83 |   0 |   0 | 1.134341e+02 |      --      |    Inf | unknown
 27.6s|     1 |     0 |205236 |     - |    35M |   0 | 825 | 298 |1148 |4705 | 84 |   0 |   0 | 1.218472e+02 |      --      |    Inf | unknown
 27.6s|     1 |     0 |205310 |     - |    35M |   0 | 825 | 298 |1177 |4734 | 85 |   0 |   0 | 1.219936e+02 |      --      |    Inf | unknown
 27.6s|     1 |     0 |205559 |     - |    35M |   0 | 825 | 298 |1223 |4780 | 86 |   0 |   0 | 1.264769e+02 |      --      |    Inf | unknown
 27.7s|     1 |     0 |205662 |     - |    35M |   0 | 825 | 298 |1249 |4806 | 87 |   0 |   0 | 1.265001e+02 |      --      |    Inf | unknown
 27.7s|     1 |     0 |206099 |     - |    35M |   0 | 825 | 298 |1289 |4846 | 88 |   0 |   0 | 1.305574e+02 |      --      |    Inf | unknown
 time | node  | left  |LP iter|LP it/n|mem/heur|mdpt |vars |cons |rows |cuts |sepa|confs|strbr|  dualbound   | primalbound  |  gap   | compl. 
 27.8s|     1 |     0 |206146 |     - |    35M |   0 | 825 | 298 |1303 |4860 | 89 |   0 |   0 | 1.305710e+02 |      --      |    Inf | unknown
 27.8s|     1 |     0 |206461 |     - |    35M |   0 | 825 | 298 |1339 |4896 | 90 |   0 |   0 | 1.338281e+02 |      --      |    Inf | unknown
 27.8s|     1 |     0 |206528 |     - |    35M |   0 | 825 | 298 |1373 |4930 | 91 |   0 |   0 | 1.339058e+02 |      --      |    Inf | unknown
 27.9s|     1 |     0 |206871 |     - |    35M |   0 | 825 | 298 | 943 |4975 | 92 |   0 |   0 | 1.423452e+02 |      --      |    Inf | unknown
 27.9s|     1 |     0 |207086 |     - |    35M |   0 | 825 | 298 |1003 |5035 | 93 |   0 |   0 | 1.424460e+02 |      --      |    Inf | unknown
 27.9s|     1 |     0 |207204 |     - |    35M |   0 | 825 | 298 | 928 |5082 | 94 |   0 |   0 | 1.437641e+02 |      --      |    Inf | unknown
 27.9s|     1 |     0 |207300 |     - |    35M |   0 | 825 | 298 | 963 |5117 | 95 |   0 |   0 | 1.439991e+02 |      --      |    Inf | unknown
 27.9s|     1 |     0 |207392 |     - |    35M |   0 | 825 | 298 |1006 |5160 | 96 |   0 |   0 | 1.452253e+02 |      --      |    Inf | unknown
 28.0s|     1 |     0 |207468 |     - |    35M |   0 | 825 | 298 |1032 |5186 | 97 |   0 |   0 | 1.452637e+02 |      --      |    Inf | unknown
 28.0s|     1 |     0 |207623 |     - |    35M |   0 | 825 | 298 |1068 |5222 | 98 |   0 |   0 | 1.479321e+02 |      --      |    Inf | unknown
 28.0s|     1 |     0 |207703 |     - |    35M |   0 | 825 | 298 |1110 |5264 | 99 |   0 |   0 | 1.479729e+02 |      --      |    Inf | unknown
 28.0s|     1 |     0 |207803 |     - |    35M |   0 | 825 | 298 |1153 |5307 |100 |   0 |   0 | 1.526986e+02 |      --      |    Inf | unknown
 28.1s|     1 |     0 |207849 |     - |    35M |   0 | 825 | 298 |1173 |5327 |101 |   0 |   0 | 1.527031e+02 |      --      |    Inf | unknown
 28.1s|     1 |     0 |208132 |     - |    35M |   0 | 825 | 298 |1216 |5370 |102 |   0 |   0 | 1.588933e+02 |      --      |    Inf | unknown
 28.2s|     1 |     0 |208216 |     - |    35M |   0 | 825 | 298 |1241 |5395 |103 |   0 |   0 | 1.589075e+02 |      --      |    Inf | unknown
 time | node  | left  |LP iter|LP it/n|mem/heur|mdpt |vars |cons |rows |cuts |sepa|confs|strbr|  dualbound   | primalbound  |  gap   | compl. 
 28.2s|     1 |     0 |208624 |     - |    35M |   0 | 825 | 298 |1286 |5440 |104 |   0 |   0 | 1.783247e+02 |      --      |    Inf | unknown
 28.2s|     1 |     0 |208690 |     - |    35M |   0 | 825 | 298 |1325 |5479 |105 |   0 |   0 | 1.785438e+02 |      --      |    Inf | unknown
 28.2s|     1 |     0 |208941 |     - |    35M |   0 | 825 | 298 |1377 |5531 |106 |   0 |   0 | 1.788142e+02 |      --      |    Inf | unknown
 28.3s|     1 |     0 |209010 |     - |    35M |   0 | 825 | 298 |1401 |5555 |107 |   0 |   0 | 1.788382e+02 |      --      |    Inf | unknown
 28.3s|     1 |     0 |209171 |     - |    35M |   0 | 825 | 298 | 899 |5589 |108 |   0 |   0 | 1.804739e+02 |      --      |    Inf | unknown
 28.3s|     1 |     0 |209349 |     - |    35M |   0 | 825 | 298 | 973 |5663 |109 |   0 |   0 | 1.804895e+02 |      --      |    Inf | unknown
 28.4s|     1 |     0 |209548 |     - |    35M |   0 | 825 | 298 | 938 |5705 |110 |   0 |   0 | 1.809587e+02 |      --      |    Inf | unknown
 28.4s|     1 |     0 |209642 |     - |    35M |   0 | 825 | 298 | 973 |5740 |111 |   0 |   0 | 1.809604e+02 |      --      |    Inf | unknown
 28.4s|     1 |     0 |209975 |     - |    35M |   0 | 825 | 298 | 931 |5771 |112 |   0 |   0 | 1.870073e+02 |      --      |    Inf | unknown
 28.5s|     1 |     0 |210091 |     - |    35M |   0 | 825 | 298 | 945 |5814 |113 |   0 |   0 | 1.870135e+02 |      --      |    Inf | unknown
 28.5s|     1 |     0 |210219 |     - |    35M |   0 | 825 | 298 | 986 |5855 |114 |   0 |   0 | 1.873529e+02 |      --      |    Inf | unknown
 28.6s|     1 |     0 |211737 |     - |    35M |   0 | 825 | 298 |1006 |5875 |115 |   0 |   0 | 1.874137e+02 |      --      |    Inf | unknown
 28.7s|     1 |     0 |212240 |     - |    35M |   0 | 825 | 298 |1049 |5918 |116 |   0 |   0 | 1.899102e+02 |      --      |    Inf | unknown
 28.7s|     1 |     0 |212376 |     - |    35M |   0 | 825 | 298 |1081 |5950 |117 |   0 |   0 | 1.899551e+02 |      --      |    Inf | unknown
 28.7s|     1 |     0 |212570 |     - |    35M |   0 | 825 | 298 |1122 |5991 |118 |   0 |   0 | 1.929019e+02 |      --      |    Inf | unknown
 time | node  | left  |LP iter|LP it/n|mem/heur|mdpt |vars |cons |rows |cuts |sepa|confs|strbr|  dualbound   | primalbound  |  gap   | compl. 
 28.8s|     1 |     0 |212632 |     - |    35M |   0 | 825 | 298 |1142 |6011 |119 |   0 |   0 | 1.929317e+02 |      --      |    Inf | unknown
 28.8s|     1 |     0 |212809 |     - |    35M |   0 | 825 | 298 |1181 |6050 |120 |   0 |   0 | 1.939849e+02 |      --      |    Inf | unknown
 28.8s|     1 |     0 |212864 |     - |    35M |   0 | 825 | 298 |1197 |6066 |121 |   0 |   0 | 1.940031e+02 |      --      |    Inf | unknown
 28.8s|     1 |     0 |212957 |     - |    35M |   0 | 825 | 298 |1232 |6101 |122 |   0 |   0 | 1.941937e+02 |      --      |    Inf | unknown
 28.9s|     1 |     0 |212996 |     - |    35M |   0 | 825 | 298 | 859 |6116 |123 |   0 |   0 | 1.941961e+02 |      --      |    Inf | unknown
 28.9s|     1 |     0 |213250 |     - |    35M |   0 | 825 | 298 | 895 |6152 |124 |   0 |   0 | 2.053066e+02 |      --      |    Inf | unknown
 29.0s|     1 |     0 |213480 |     - |    35M |   0 | 825 | 298 | 934 |6191 |125 |   0 |   0 | 2.053421e+02 |      --      |    Inf | unknown
 29.0s|     1 |     0 |213555 |     - |    35M |   0 | 825 | 298 | 975 |6232 |126 |   0 |   0 | 2.054952e+02 |      --      |    Inf | unknown
 29.0s|     1 |     0 |213642 |     - |    35M |   0 | 825 | 298 |1000 |6257 |127 |   0 |   0 | 2.055160e+02 |      --      |    Inf | unknown
 29.0s|     1 |     0 |213832 |     - |    35M |   0 | 825 | 298 |1037 |6294 |128 |   0 |   0 | 2.080835e+02 |      --      |    Inf | unknown
 29.1s|     1 |     0 |213883 |     - |    35M |   0 | 825 | 298 |1067 |6324 |129 |   0 |   0 | 2.080997e+02 |      --      |    Inf | unknown
 29.1s|     1 |     0 |213988 |     - |    35M |   0 | 825 | 298 |1111 |6368 |130 |   0 |   0 | 2.081364e+02 |      --      |    Inf | unknown
 29.1s|     1 |     0 |214053 |     - |    35M |   0 | 825 | 298 |1135 |6392 |131 |   0 |   0 | 2.081402e+02 |      --      |    Inf | unknown
 29.1s|     1 |     0 |214396 |     - |    35M |   0 | 825 | 298 |1169 |6426 |132 |   0 |   0 | 2.101170e+02 |      --      |    Inf | unknown
 29.2s|     1 |     0 |214485 |     - |    35M |   0 | 825 | 298 | 903 |6461 |133 |   0 |   0 | 2.101349e+02 |      --      |    Inf | unknown
 time | node  | left  |LP iter|LP it/n|mem/heur|mdpt |vars |cons |rows |cuts |sepa|confs|strbr|  dualbound   | primalbound  |  gap   | compl. 
 29.2s|     1 |     0 |214612 |     - |    35M |   0 | 825 | 298 | 951 |6509 |134 |   0 |   0 | 2.102803e+02 |      --      |    Inf | unknown
 29.2s|     1 |     0 |214829 |     - |    35M |   0 | 825 | 298 | 888 |6555 |135 |   0 |   0 | 2.103084e+02 |      --      |    Inf | unknown
 29.2s|     1 |     0 |214912 |     - |    35M |   0 | 825 | 298 | 933 |6600 |136 |   0 |   0 | 2.104064e+02 |      --      |    Inf | unknown
 29.3s|     1 |     0 |215017 |     - |    35M |   0 | 825 | 298 | 892 |6632 |137 |   0 |   0 | 2.104086e+02 |      --      |    Inf | unknown
 29.3s|     1 |     0 |215094 |     - |    35M |   0 | 825 | 298 | 930 |6670 |138 |   0 |   0 | 2.104877e+02 |      --      |    Inf | unknown
 29.4s|     1 |     0 |216608 |     - |    35M |   0 | 825 | 298 | 946 |6686 |139 |   0 |   0 | 2.104885e+02 |      --      |    Inf | unknown
 29.4s|     1 |     0 |216659 |     - |    35M |   0 | 825 | 298 | 974 |6714 |140 |   0 |   0 | 2.105742e+02 |      --      |    Inf | unknown
 29.5s|     1 |     0 |216705 |     - |    35M |   0 | 825 | 298 | 978 |6718 |141 |   0 |   0 | 2.105743e+02 |      --      |    Inf | unknown
 29.5s|     1 |     0 |216811 |     - |    35M |   0 | 825 | 298 | 810 |6748 |142 |   0 |   0 | 2.105885e+02 |      --      |    Inf | unknown
 29.6s|     1 |     0 |217574 |     - |    35M |   0 | 825 | 298 | 842 |6780 |143 |   0 |   0 | 2.105887e+02 |      --      |    Inf | unknown
 29.6s|     1 |     0 |217702 |     - |    35M |   0 | 825 | 298 | 871 |6809 |144 |   0 |   0 | 2.130552e+02 |      --      |    Inf | unknown
 29.6s|     1 |     0 |217824 |     - |    35M |   0 | 825 | 298 | 907 |6845 |145 |   0 |   0 | 2.131519e+02 |      --      |    Inf | unknown
 29.6s|     1 |     0 |217969 |     - |    35M |   0 | 825 | 298 | 955 |6893 |146 |   0 |   0 | 2.132810e+02 |      --      |    Inf | unknown
 29.7s|     1 |     0 |218060 |     - |    35M |   0 | 825 | 298 | 788 |6924 |147 |   0 |   0 | 2.133558e+02 |      --      |    Inf | unknown
 29.7s|     1 |     0 |218159 |     - |    35M |   0 | 825 | 298 | 825 |6961 |148 |   0 |   0 | 2.148393e+02 |      --      |    Inf | unknown
 time | node  | left  |LP iter|LP it/n|mem/heur|mdpt |vars |cons |rows |cuts |sepa|confs|strbr|  dualbound   | primalbound  |  gap   | compl. 
 29.7s|     1 |     0 |218308 |     - |    35M |   0 | 825 | 298 | 869 |7060 |149 |   0 |   0 | 2.148593e+02 |      --      |    Inf | unknown
 29.7s|     1 |     0 |218586 |     - |    35M |   0 | 825 | 298 | 921 |7112 |150 |   0 |   0 | 2.233611e+02 |      --      |    Inf | unknown
 29.8s|     1 |     0 |219573 |     - |    35M |   0 | 825 | 298 |1038 |7229 |151 |   0 |   0 | 2.254741e+02 |      --      |    Inf | unknown
 29.8s|     1 |     0 |219721 |     - |    35M |   0 | 825 | 298 |1096 |7287 |152 |   0 |   0 | 2.287585e+02 |      --      |    Inf | unknown
 29.9s|     1 |     0 |219886 |     - |    35M |   0 | 825 | 298 |1063 |7326 |153 |   0 |   0 | 2.301551e+02 |      --      |    Inf | unknown
 29.9s|     1 |     0 |219974 |     - |    35M |   0 | 825 | 298 |1116 |7379 |154 |   0 |   0 | 2.306335e+02 |      --      |    Inf | unknown
 29.9s|     1 |     0 |220040 |     - |    35M |   0 | 825 | 298 |1149 |7412 |155 |   0 |   0 | 2.308691e+02 |      --      |    Inf | unknown
 29.9s|     1 |     0 |220391 |     - |    35M |   0 | 825 | 298 |1095 |7465 |156 |   0 |   0 | 2.361070e+02 |      --      |    Inf | unknown
 30.0s|     1 |     0 |220484 |     - |    35M |   0 | 825 | 298 |1145 |7515 |157 |   0 |   0 | 2.361605e+02 |      --      |    Inf | unknown
 30.0s|     1 |     0 |220859 |     - |    35M |   0 | 825 | 298 |1197 |7567 |158 |   0 |   0 | 2.462736e+02 |      --      |    Inf | unknown
 30.1s|     1 |     0 |220942 |     - |    35M |   0 | 825 | 298 |1214 |7584 |159 |   0 |   0 | 2.462974e+02 |      --      |    Inf | unknown
 30.1s|     1 |     0 |221008 |     - |    35M |   0 | 825 | 298 |1256 |7626 |160 |   0 |   0 | 2.463597e+02 |      --      |    Inf | unknown
 30.1s|     1 |     0 |221050 |     - |    35M |   0 | 825 | 298 |1266 |7636 |161 |   0 |   0 | 2.463622e+02 |      --      |    Inf | unknown
 30.1s|     1 |     0 |221101 |     - |    35M |   0 | 825 | 298 |1295 |7665 |162 |   0 |   0 | 2.463845e+02 |      --      |    Inf | unknown
 30.2s|     1 |     0 |221138 |     - |    35M |   0 | 825 | 298 |1309 |7679 |163 |   0 |   0 | 2.463859e+02 |      --      |    Inf | unknown
 time | node  | left  |LP iter|LP it/n|mem/heur|mdpt |vars |cons |rows |cuts |sepa|confs|strbr|  dualbound   | primalbound  |  gap   | compl. 
 30.2s|     1 |     0 |221620 |     - |    35M |   0 | 825 | 298 |1339 |7709 |164 |   0 |   0 | 2.571342e+02 |      --      |    Inf | unknown
 30.3s|     1 |     0 |221690 |     - |    35M |   0 | 825 | 298 |1366 |7736 |165 |   0 |   0 | 2.571738e+02 |      --      |    Inf | unknown
 30.3s|     1 |     0 |222090 |     - |    35M |   0 | 825 | 298 |1404 |7774 |166 |   0 |   0 | 2.593268e+02 |      --      |    Inf | unknown
 30.3s|     1 |     0 |222157 |     - |    35M |   0 | 825 | 298 | 822 |7790 |167 |   0 |   0 | 2.593660e+02 |      --      |    Inf | unknown
 30.3s|     1 |     0 |222288 |     - |    35M |   0 | 825 | 298 | 864 |7832 |168 |   0 |   0 | 2.700202e+02 |      --      |    Inf | unknown
 30.4s|     1 |     0 |222532 |     - |    35M |   0 | 825 | 298 | 955 |7923 |169 |   0 |   0 | 2.704117e+02 |      --      |    Inf | unknown
 30.4s|     1 |     0 |222678 |     - |    35M |   0 | 825 | 298 |1014 |7982 |170 |   0 |   0 | 2.712270e+02 |      --      |    Inf | unknown
 30.4s|     1 |     0 |222767 |     - |    35M |   0 | 825 | 298 | 922 |8012 |171 |   0 |   0 | 2.713836e+02 |      --      |    Inf | unknown
 30.4s|     1 |     0 |222912 |     - |    35M |   0 | 825 | 298 | 963 |8053 |172 |   0 |   0 | 2.737391e+02 |      --      |    Inf | unknown
 30.5s|     1 |     0 |223047 |     - |    35M |   0 | 825 | 298 |1045 |8135 |173 |   0 |   0 | 2.737608e+02 |      --      |    Inf | unknown
 30.5s|     1 |     0 |223148 |     - |    35M |   0 | 825 | 298 |1002 |8171 |174 |   0 |   0 | 2.738240e+02 |      --      |    Inf | unknown
 30.5s|     1 |     0 |223226 |     - |    35M |   0 | 825 | 298 |1035 |8204 |175 |   0 |   0 | 2.738255e+02 |      --      |    Inf | unknown
 30.5s|     1 |     0 |223425 |     - |    35M |   0 | 825 | 298 | 992 |8242 |176 |   0 |   0 | 2.741321e+02 |      --      |    Inf | unknown
 30.6s|     1 |     0 |223482 |     - |    35M |   0 | 825 | 298 |1021 |8271 |177 |   0 |   0 | 2.741337e+02 |      --      |    Inf | unknown
 30.6s|     1 |     0 |223533 |     - |    35M |   0 | 825 | 298 |1057 |8307 |178 |   0 |   0 | 2.744030e+02 |      --      |    Inf | unknown
 time | node  | left  |LP iter|LP it/n|mem/heur|mdpt |vars |cons |rows |cuts |sepa|confs|strbr|  dualbound   | primalbound  |  gap   | compl. 
 30.6s|     1 |     0 |223559 |     - |    35M |   0 | 825 | 298 |1070 |8320 |179 |   0 |   0 | 2.744035e+02 |      --      |    Inf | unknown
 30.6s|     1 |     0 |223883 |     - |    35M |   0 | 825 | 298 |1106 |8356 |180 |   0 |   0 | 2.753364e+02 |      --      |    Inf | unknown
 30.6s|     1 |     0 |223929 |     - |    35M |   0 | 825 | 298 |1119 |8369 |181 |   0 |   0 | 2.753384e+02 |      --      |    Inf | unknown
 30.7s|     1 |     0 |224877 |     - |    35M |   0 | 825 | 298 |1158 |8408 |182 |   0 |   0 | 2.829535e+02 |      --      |    Inf | unknown
 30.7s|     1 |     0 |225092 |     - |    35M |   0 | 825 | 298 | 849 |8435 |183 |   0 |   0 | 2.834297e+02 |      --      |    Inf | unknown
 30.7s|     1 |     0 |225211 |     - |    35M |   0 | 825 | 298 | 903 |8489 |184 |   0 |   0 | 2.840261e+02 |      --      |    Inf | unknown
 30.8s|     1 |     0 |225383 |     - |    35M |   0 | 825 | 298 | 890 |8550 |185 |   0 |   0 | 2.840483e+02 |      --      |    Inf | unknown
 30.8s|     1 |     0 |225501 |     - |    35M |   0 | 825 | 298 | 939 |8599 |186 |   0 |   0 | 2.855088e+02 |      --      |    Inf | unknown
 30.9s|     1 |     0 |226421 |     - |    35M |   0 | 825 | 298 | 990 |8650 |187 |   0 |   0 | 2.855205e+02 |      --      |    Inf | unknown
 30.9s|     1 |     0 |226586 |     - |    35M |   0 | 825 | 298 |1033 |8693 |188 |   0 |   0 | 2.872761e+02 |      --      |    Inf | unknown
 30.9s|     1 |     0 |226651 |     - |    35M |   0 | 825 | 298 |1060 |8720 |189 |   0 |   0 | 2.872853e+02 |      --      |    Inf | unknown
 31.0s|     1 |     0 |227257 |     - |    35M |   0 | 825 | 298 |1101 |8761 |190 |   0 |   0 | 3.025112e+02 |      --      |    Inf | unknown
 31.0s|     1 |     0 |227323 |     - |    35M |   0 | 825 | 298 |1134 |8794 |191 |   0 |   0 | 3.026217e+02 |      --      |    Inf | unknown
 31.0s|     1 |     0 |227850 |     - |    35M |   0 | 825 | 298 |1180 |8840 |192 |   0 |   0 | 3.115834e+02 |      --      |    Inf | unknown
 31.1s|     1 |     0 |227924 |     - |    35M |   0 | 825 | 298 | 932 |8865 |193 |   0 |   0 | 3.117660e+02 |      --      |    Inf | unknown
 time | node  | left  |LP iter|LP it/n|mem/heur|mdpt |vars |cons |rows |cuts |sepa|confs|strbr|  dualbound   | primalbound  |  gap   | compl. 
 31.1s|     1 |     0 |228054 |     - |    35M |   0 | 825 | 298 | 981 |8914 |194 |   0 |   0 | 3.125776e+02 |      --      |    Inf | unknown
 31.1s|     1 |     0 |228162 |     - |    35M |   0 | 825 | 298 | 936 |8956 |195 |   0 |   0 | 3.126040e+02 |      --      |    Inf | unknown
 31.1s|     1 |     0 |228276 |     - |    35M |   0 | 825 | 298 | 976 |8996 |196 |   0 |   0 | 3.136289e+02 |      --      |    Inf | unknown
 31.1s|     1 |     0 |228384 |     - |    35M |   0 | 825 | 298 |1002 |9022 |197 |   0 |   0 | 3.136384e+02 |      --      |    Inf | unknown
 31.1s|     1 |     0 |228449 |     - |    35M |   0 | 825 | 298 | 891 |9054 |198 |   0 |   0 | 3.136531e+02 |      --      |    Inf | unknown
 31.2s|     1 |     0 |228544 |     - |    35M |   0 | 825 | 298 | 904 |9067 |199 |   0 |   0 | 3.136536e+02 |      --      |    Inf | unknown
 31.2s|     1 |     0 |228579 |     - |    35M |   0 | 825 | 298 | 932 |9095 |200 |   0 |   0 | 3.136549e+02 |      --      |    Inf | unknown
 31.3s|     1 |     0 |230103 |     - |    35M |   0 | 825 | 298 | 942 |9105 |201 |   0 |   0 | 3.136549e+02 |      --      |    Inf | unknown
 31.3s|     1 |     0 |230179 |     - |    35M |   0 | 825 | 298 | 798 |9134 |202 |   0 |   0 | 3.139757e+02 |      --      |    Inf | unknown
 31.4s|     1 |     0 |230950 |     - |    35M |   0 | 825 | 298 | 841 |9177 |203 |   0 |   0 | 3.139911e+02 |      --      |    Inf | unknown
 31.4s|     1 |     0 |231066 |     - |    35M |   0 | 825 | 298 | 879 |9215 |204 |   0 |   0 | 3.143040e+02 |      --      |    Inf | unknown
 31.4s|     1 |     0 |231108 |     - |    35M |   0 | 825 | 298 | 775 |9229 |205 |   0 |   0 | 3.143092e+02 |      --      |    Inf | unknown
 31.4s|     1 |     0 |231324 |     - |    35M |   0 | 825 | 298 | 817 |9271 |206 |   0 |   0 | 3.154490e+02 |      --      |    Inf | unknown
 31.5s|     1 |     0 |231468 |     - |    35M |   0 | 825 | 298 | 798 |9326 |207 |   0 |   0 | 3.154543e+02 |      --      |    Inf | unknown
 31.5s|     1 |     0 |231529 |     - |    35M |   0 | 825 | 298 | 835 |9363 |208 |   0 |   0 | 3.154687e+02 |      --      |    Inf | unknown
 time | node  | left  |LP iter|LP it/n|mem/heur|mdpt |vars |cons |rows |cuts |sepa|confs|strbr|  dualbound   | primalbound  |  gap   | compl. 
 31.5s|     1 |     0 |231581 |     - |    35M |   0 | 825 | 298 | 862 |9390 |209 |   0 |   0 | 3.154690e+02 |      --      |    Inf | unknown
 31.5s|     1 |     0 |231647 |     - |    35M |   0 | 825 | 298 | 831 |9426 |210 |   0 |   0 | 3.154786e+02 |      --      |    Inf | unknown
 31.6s|     1 |     0 |233044 |     - |    35M |   0 | 825 | 298 | 871 |9466 |211 |   0 |   0 | 3.154803e+02 |      --      |    Inf | unknown
 31.6s|     1 |     0 |233098 |     - |    35M |   0 | 825 | 298 | 899 |9494 |212 |   0 |   0 | 3.157015e+02 |      --      |    Inf | unknown
 31.7s|     1 |     0 |233162 |     - |    35M |   0 | 825 | 298 | 914 |9509 |213 |   0 |   0 | 3.157027e+02 |      --      |    Inf | unknown
 31.7s|     1 |     0 |233257 |     - |    35M |   0 | 825 | 298 | 948 |9543 |214 |   0 |   0 | 3.162148e+02 |      --      |    Inf | unknown
 31.7s|     1 |     0 |233331 |     - |    35M |   0 | 825 | 298 | 969 |9564 |215 |   0 |   0 | 3.162180e+02 |      --      |    Inf | unknown
 31.8s|     1 |     0 |233381 |     - |    35M |   0 | 825 | 298 | 830 |9602 |216 |   0 |   0 | 3.162195e+02 |      --      |    Inf | unknown
 31.8s|     1 |     0 |234145 |     - |    35M |   0 | 825 | 298 | 857 |9629 |217 |   0 |   0 | 3.162206e+02 |      --      |    Inf | unknown
 31.8s|     1 |     0 |234197 |     - |    35M |   0 | 825 | 298 | 893 |9665 |218 |   0 |   0 | 3.162207e+02 |      --      |    Inf | unknown
 32.0s|     1 |     0 |235676 |     - |    35M |   0 | 825 | 298 | 897 |9669 |219 |   0 |   0 | 3.162208e+02 |      --      |    Inf | unknown
 32.0s|     1 |     0 |235845 |     - |    35M |   0 | 825 | 298 | 925 |9697 |220 |   0 |   0 | 3.171621e+02 |      --      |    Inf | unknown
 32.0s|     1 |     0 |235951 |     - |    35M |   0 | 825 | 298 | 959 |9731 |221 |   0 |   0 | 3.171718e+02 |      --      |    Inf | unknown
 32.0s|     1 |     0 |236171 |     - |    35M |   0 | 825 | 298 |1001 |9773 |222 |   0 |   0 | 3.173558e+02 |      --      |    Inf | unknown
 32.1s|     1 |     0 |236270 |     - |    35M |   0 | 825 | 298 |1018 |9790 |223 |   0 |   0 | 3.173646e+02 |      --      |    Inf | unknown
 time | node  | left  |LP iter|LP it/n|mem/heur|mdpt |vars |cons |rows |cuts |sepa|confs|strbr|  dualbound   | primalbound  |  gap   | compl. 
 32.1s|     1 |     0 |236370 |     - |    35M |   0 | 825 | 298 |1061 |9833 |224 |   0 |   0 | 3.173808e+02 |      --      |    Inf | unknown
 32.1s|     1 |     0 |236393 |     - |    35M |   0 | 825 | 298 |1065 |9837 |225 |   0 |   0 | 3.173811e+02 |      --      |    Inf | unknown
 32.1s|     1 |     0 |236544 |     - |    35M |   0 | 825 | 298 |1100 |9872 |226 |   0 |   0 | 3.207778e+02 |      --      |    Inf | unknown
 32.2s|     1 |     0 |236604 |     - |    35M |   0 | 825 | 298 | 778 |9892 |227 |   0 |   0 | 3.208148e+02 |      --      |    Inf | unknown
 32.2s|     1 |     0 |236654 |     - |    35M |   0 | 825 | 298 | 817 |9931 |228 |   0 |   0 | 3.210019e+02 |      --      |    Inf | unknown
 32.2s|     1 |     0 |236797 |     - |    35M |   0 | 825 | 298 | 870 |9984 |229 |   0 |   0 | 3.210156e+02 |      --      |    Inf | unknown
 32.2s|     1 |     0 |236962 |     - |    35M |   0 | 825 | 298 | 834 |  10k|230 |   0 |   0 | 3.240714e+02 |      --      |    Inf | unknown
 32.3s|     1 |     0 |237175 |     - |    35M |   0 | 825 | 298 | 875 |  10k|231 |   0 |   0 | 3.242101e+02 |      --      |    Inf | unknown
 32.3s|     1 |     0 |237270 |     - |    35M |   0 | 825 | 298 | 855 |  10k|232 |   0 |   0 | 3.242775e+02 |      --      |    Inf | unknown
 32.4s|     1 |     0 |237398 |     - |    35M |   0 | 825 | 298 | 898 |  10k|233 |   0 |   0 | 3.243137e+02 |      --      |    Inf | unknown
 32.4s|     1 |     0 |237431 |     - |    35M |   0 | 825 | 298 | 897 |  10k|234 |   0 |   0 | 3.243192e+02 |      --      |    Inf | unknown
 32.4s|     1 |     0 |237509 |     - |    35M |   0 | 825 | 298 | 920 |  10k|235 |   0 |   0 | 3.243200e+02 |      --      |    Inf | unknown
 32.4s|     1 |     0 |237679 |     - |    35M |   0 | 825 | 298 | 913 |  10k|236 |   0 |   0 | 3.246482e+02 |      --      |    Inf | unknown
 32.4s|     1 |     0 |237730 |     - |    35M |   0 | 825 | 298 | 943 |  10k|237 |   0 |   0 | 3.246505e+02 |      --      |    Inf | unknown
 32.4s|     1 |     0 |237781 |     - |    35M |   0 | 825 | 298 | 979 |  10k|238 |   0 |   0 | 3.247518e+02 |      --      |    Inf | unknown
 time | node  | left  |LP iter|LP it/n|mem/heur|mdpt |vars |cons |rows |cuts |sepa|confs|strbr|  dualbound   | primalbound  |  gap   | compl. 
 32.6s|     1 |     0 |239074 |     - |    35M |   0 | 825 | 298 | 997 |  10k|239 |   0 |   0 | 3.247531e+02 |      --      |    Inf | unknown
 32.6s|     1 |     0 |239241 |     - |    35M |   0 | 825 | 298 |1028 |  10k|240 |   0 |   0 | 3.250410e+02 |      --      |    Inf | unknown
 32.6s|     1 |     0 |239264 |     - |    35M |   0 | 825 | 298 |1037 |  10k|241 |   0 |   0 | 3.250411e+02 |      --      |    Inf | unknown
 32.6s|     1 |     0 |239374 |     - |    35M |   0 | 825 | 298 | 813 |  10k|242 |   0 |   0 | 3.254354e+02 |      --      |    Inf | unknown
 32.7s|     1 |     0 |239497 |     - |    35M |   0 | 825 | 298 | 848 |  10k|243 |   0 |   0 | 3.254383e+02 |      --      |    Inf | unknown
 32.7s|     1 |     0 |239561 |     - |    35M |   0 | 825 | 298 | 810 |  10k|244 |   0 |   0 | 3.254639e+02 |      --      |    Inf | unknown
 32.8s|     1 |     0 |240840 |     - |    35M |   0 | 825 | 298 | 845 |  10k|245 |   0 |   0 | 3.254947e+02 |      --      |    Inf | unknown
 32.8s|     1 |     0 |240874 |     - |    35M |   0 | 825 | 298 | 889 |  10k|246 |   0 |   0 | 3.255078e+02 |      --      |    Inf | unknown
 32.8s|     1 |     0 |240926 |     - |    35M |   0 | 825 | 298 | 908 |  10k|247 |   0 |   0 | 3.255184e+02 |      --      |    Inf | unknown
 32.8s|     1 |     0 |240970 |     - |    35M |   0 | 825 | 298 | 949 |  10k|248 |   0 |   0 | 3.255313e+02 |      --      |    Inf | unknown
 32.9s|     1 |     0 |240994 |     - |    35M |   0 | 825 | 298 | 963 |  10k|249 |   0 |   0 | 3.255332e+02 |      --      |    Inf | unknown
 32.9s|     1 |     0 |241162 |     - |    35M |   0 | 825 | 298 | 999 |  10k|250 |   0 |   0 | 3.265744e+02 |      --      |    Inf | unknown
 32.9s|     1 |     0 |241295 |     - |    35M |   0 | 825 | 298 |1021 |  10k|251 |   0 |   0 | 3.265962e+02 |      --      |    Inf | unknown
 33.0s|     1 |     0 |241582 |     - |    35M |   0 | 825 | 298 |1062 |  10k|252 |   0 |   0 | 3.271194e+02 |      --      |    Inf | unknown
 33.0s|     1 |     0 |241702 |     - |    35M |   0 | 825 | 298 | 823 |  10k|253 |   0 |   0 | 3.271223e+02 |      --      |    Inf | unknown
 time | node  | left  |LP iter|LP it/n|mem/heur|mdpt |vars |cons |rows |cuts |sepa|confs|strbr|  dualbound   | primalbound  |  gap   | compl. 
 33.0s|     1 |     0 |241869 |     - |    35M |   0 | 825 | 298 | 857 |  10k|254 |   0 |   0 | 3.276840e+02 |      --      |    Inf | unknown
 33.1s|     1 |     0 |242663 |     - |    35M |   0 | 825 | 298 | 927 |  10k|255 |   0 |   0 | 3.279122e+02 |      --      |    Inf | unknown
 33.1s|     1 |     0 |242726 |     - |    35M |   0 | 825 | 298 | 968 |  10k|256 |   0 |   0 | 3.279475e+02 |      --      |    Inf | unknown
 33.2s|     1 |     0 |244201 |     - |    35M |   0 | 825 | 298 | 983 |  10k|257 |   0 |   0 | 3.279640e+02 |      --      |    Inf | unknown
 33.2s|     1 |     0 |244370 |     - |    35M |   0 | 825 | 298 |1016 |  10k|258 |   0 |   0 | 3.287870e+02 |      --      |    Inf | unknown
 33.3s|     1 |     0 |244510 |     - |    35M |   0 | 825 | 298 | 881 |  10k|259 |   0 |   0 | 3.287938e+02 |      --      |    Inf | unknown
 33.3s|     1 |     0 |244627 |     - |    35M |   0 | 825 | 298 | 914 |  11k|260 |   0 |   0 | 3.292894e+02 |      --      |    Inf | unknown
 33.3s|     1 |     0 |244716 |     - |    35M |   0 | 825 | 298 | 944 |  11k|261 |   0 |   0 | 3.292911e+02 |      --      |    Inf | unknown
 33.4s|     1 |     0 |244810 |     - |    35M |   0 | 825 | 298 | 974 |  11k|262 |   0 |   0 | 3.294262e+02 |      --      |    Inf | unknown
 33.4s|     1 |     0 |244842 |     - |    35M |   0 | 825 | 298 | 991 |  11k|263 |   0 |   0 | 3.294266e+02 |      --      |    Inf | unknown
 33.4s|     1 |     0 |245148 |     - |    35M |   0 | 825 | 298 |1021 |  11k|264 |   0 |   0 | 3.298163e+02 |      --      |    Inf | unknown
 33.5s|     1 |     0 |245940 |     - |    36M |   0 | 825 | 298 |1035 |  11k|265 |   0 |   0 | 3.298165e+02 |      --      |    Inf | unknown
 33.5s|     1 |     0 |246231 |     - |    36M |   0 | 825 | 298 |1063 |  11k|266 |   0 |   0 | 3.306064e+02 |      --      |    Inf | unknown
 33.5s|     1 |     0 |246266 |     - |    36M |   0 | 825 | 298 |1080 |  11k|267 |   0 |   0 | 3.306131e+02 |      --      |    Inf | unknown
 33.5s|     1 |     0 |246379 |     - |    36M |   0 | 825 | 298 |1119 |  11k|268 |   0 |   0 | 3.308205e+02 |      --      |    Inf | unknown
 time | node  | left  |LP iter|LP it/n|mem/heur|mdpt |vars |cons |rows |cuts |sepa|confs|strbr|  dualbound   | primalbound  |  gap   | compl. 
 33.6s|     1 |     0 |246413 |     - |    36M |   0 | 825 | 298 |1132 |  11k|269 |   0 |   0 | 3.308218e+02 |      --      |    Inf | unknown
 33.6s|     1 |     0 |246651 |     - |    36M |   0 | 825 | 298 |1160 |  11k|270 |   0 |   0 | 3.309564e+02 |      --      |    Inf | unknown
 33.6s|     1 |     0 |246672 |     - |    36M |   0 | 825 | 298 |1168 |  11k|271 |   0 |   0 | 3.309566e+02 |      --      |    Inf | unknown
 33.6s|     1 |     0 |247212 |     - |    36M |   0 | 825 | 298 | 798 |  11k|272 |   0 |   0 | 3.319846e+02 |      --      |    Inf | unknown
 33.7s|     1 |     0 |247371 |     - |    36M |   0 | 825 | 298 | 866 |  11k|273 |   0 |   0 | 3.319863e+02 |      --      |    Inf | unknown
 33.7s|     1 |     0 |247467 |     - |    36M |   0 | 825 | 298 | 830 |  11k|274 |   0 |   0 | 3.321056e+02 |      --      |    Inf | unknown
 33.7s|     1 |     0 |247586 |     - |    36M |   0 | 825 | 298 | 859 |  11k|275 |   0 |   0 | 3.321112e+02 |      --      |    Inf | unknown
 33.7s|     1 |     0 |247616 |     - |    36M |   0 | 825 | 298 | 888 |  11k|276 |   0 |   0 | 3.321112e+02 |      --      |    Inf | unknown
 33.8s|     1 |     0 |247654 |     - |    36M |   0 | 825 | 298 | 896 |  11k|277 |   0 |   0 | 3.321112e+02 |      --      |    Inf | unknown
 33.8s|     1 |     0 |247825 |     - |    36M |   0 | 825 | 298 | 926 |  11k|278 |   0 |   0 | 3.354757e+02 |      --      |    Inf | unknown
 33.8s|     1 |     0 |247953 |     - |    36M |   0 | 825 | 298 | 968 |  11k|279 |   0 |   0 | 3.357271e+02 |      --      |    Inf | unknown
 33.8s|     1 |     0 |248181 |     - |    36M |   0 | 825 | 298 |1024 |  11k|280 |   0 |   0 | 3.361730e+02 |      --      |    Inf | unknown
 33.9s|     1 |     0 |248300 |     - |    36M |   0 | 825 | 298 | 903 |  11k|281 |   0 |   0 | 3.362663e+02 |      --      |    Inf | unknown
 33.9s|     1 |     0 |248694 |     - |    36M |   0 | 825 | 298 | 957 |  11k|282 |   0 |   0 | 3.381209e+02 |      --      |    Inf | unknown
 33.9s|     1 |     0 |248851 |     - |    36M |   0 | 825 | 298 | 919 |  11k|283 |   0 |   0 | 3.381655e+02 |      --      |    Inf | unknown
 time | node  | left  |LP iter|LP it/n|mem/heur|mdpt |vars |cons |rows |cuts |sepa|confs|strbr|  dualbound   | primalbound  |  gap   | compl. 
 33.9s|     1 |     0 |248954 |     - |    36M |   0 | 825 | 298 | 964 |  11k|284 |   0 |   0 | 3.383249e+02 |      --      |    Inf | unknown
 34.0s|     1 |     0 |249856 |     - |    36M |   0 | 825 | 298 |1005 |  11k|285 |   0 |   0 | 3.383412e+02 |      --      |    Inf | unknown
 34.0s|     1 |     0 |249950 |     - |    36M |   0 | 825 | 298 |1047 |  11k|286 |   0 |   0 | 3.383636e+02 |      --      |    Inf | unknown
 34.0s|     1 |     0 |249995 |     - |    36M |   0 | 825 | 298 |1066 |  11k|287 |   0 |   0 | 3.383665e+02 |      --      |    Inf | unknown
 34.1s|     1 |     0 |250537 |     - |    36M |   0 | 825 | 298 |1101 |  11k|288 |   0 |   0 | 3.387480e+02 |      --      |    Inf | unknown
 34.1s|     1 |     0 |250605 |     - |    36M |   0 | 825 | 298 | 910 |  11k|289 |   0 |   0 | 3.387596e+02 |      --      |    Inf | unknown
 34.1s|     1 |     0 |250690 |     - |    36M |   0 | 825 | 298 | 947 |  11k|290 |   0 |   0 | 3.388593e+02 |      --      |    Inf | unknown
 34.1s|     1 |     0 |250767 |     - |    36M |   0 | 825 | 298 | 980 |  12k|291 |   0 |   0 | 3.388612e+02 |      --      |    Inf | unknown
 34.2s|     1 |     0 |251560 |     - |    36M |   0 | 825 | 298 | 861 |  12k|292 |   0 |   0 | 3.441469e+02 |      --      |    Inf | unknown
 34.2s|     1 |     0 |251726 |     - |    36M |   0 | 825 | 298 | 894 |  12k|293 |   0 |   0 | 3.442821e+02 |      --      |    Inf | unknown
 34.2s|     1 |     0 |251848 |     - |    36M |   0 | 825 | 298 | 940 |  12k|294 |   0 |   0 | 3.446728e+02 |      --      |    Inf | unknown
 34.3s|     1 |     0 |251954 |     - |    36M |   0 | 825 | 298 | 985 |  12k|295 |   0 |   0 | 3.447719e+02 |      --      |    Inf | unknown
 34.3s|     1 |     0 |252274 |     - |    36M |   0 | 825 | 298 |1035 |  12k|296 |   0 |   0 | 3.464853e+02 |      --      |    Inf | unknown
 34.3s|     1 |     0 |252358 |     - |    36M |   0 | 825 | 298 | 901 |  12k|297 |   0 |   0 | 3.465123e+02 |      --      |    Inf | unknown
 34.3s|     1 |     0 |252497 |     - |    36M |   0 | 825 | 298 | 947 |  12k|298 |   0 |   0 | 3.468785e+02 |      --      |    Inf | unknown
 time | node  | left  |LP iter|LP it/n|mem/heur|mdpt |vars |cons |rows |cuts |sepa|confs|strbr|  dualbound   | primalbound  |  gap   | compl. 
 34.4s|     1 |     0 |252607 |     - |    36M |   0 | 825 | 298 | 912 |  12k|299 |   0 |   0 | 3.469141e+02 |      --      |    Inf | unknown
 34.4s|     1 |     0 |252770 |     - |    36M |   0 | 825 | 298 | 955 |  12k|300 |   0 |   0 | 3.485798e+02 |      --      |    Inf | unknown
 34.4s|     1 |     0 |252945 |     - |    36M |   0 | 825 | 298 |1014 |  12k|301 |   0 |   0 | 3.488069e+02 |      --      |    Inf | unknown
 34.5s|     1 |     0 |253270 |     - |    36M |   0 | 825 | 298 |1067 |  12k|302 |   0 |   0 | 3.493815e+02 |      --      |    Inf | unknown
 34.5s|     1 |     0 |253393 |     - |    36M |   0 | 825 | 298 |1104 |  12k|303 |   0 |   0 | 3.494019e+02 |      --      |    Inf | unknown
 34.5s|     1 |     0 |254105 |     - |    36M |   0 | 825 | 298 |1160 |  12k|304 |   0 |   0 | 3.506452e+02 |      --      |    Inf | unknown
 34.6s|     1 |     0 |254187 |     - |    36M |   0 | 825 | 298 |1180 |  12k|305 |   0 |   0 | 3.506525e+02 |      --      |    Inf | unknown
 34.6s|     1 |     0 |254659 |     - |    36M |   0 | 825 | 298 |1224 |  12k|306 |   0 |   0 | 3.513500e+02 |      --      |    Inf | unknown
 34.6s|     1 |     0 |254735 |     - |    36M |   0 | 825 | 298 | 941 |  12k|307 |   0 |   0 | 3.513601e+02 |      --      |    Inf | unknown
 34.6s|     1 |     0 |254933 |     - |    36M |   0 | 825 | 298 | 983 |  12k|308 |   0 |   0 | 3.532297e+02 |      --      |    Inf | unknown
 34.8s|     1 |     0 |255763 |     - |    36M |   0 | 825 | 298 |1010 |  12k|309 |   0 |   0 | 3.532419e+02 |      --      |    Inf | unknown
 34.8s|     1 |     0 |255786 |     - |    36M |   0 | 825 | 298 |1042 |  12k|310 |   0 |   0 | 3.532419e+02 |      --      |    Inf | unknown
 34.8s|     1 |     0 |255819 |     - |    36M |   0 | 825 | 298 |1054 |  12k|311 |   0 |   0 | 3.532419e+02 |      --      |    Inf | unknown
 34.8s|     1 |     0 |255874 |     - |    36M |   0 | 825 | 298 |1086 |  12k|312 |   0 |   0 | 3.533219e+02 |      --      |    Inf | unknown
 34.8s|     1 |     0 |255935 |     - |    36M |   0 | 825 | 298 | 838 |  12k|313 |   0 |   0 | 3.533732e+02 |      --      |    Inf | unknown
 time | node  | left  |LP iter|LP it/n|mem/heur|mdpt |vars |cons |rows |cuts |sepa|confs|strbr|  dualbound   | primalbound  |  gap   | compl. 
 34.8s|     1 |     0 |256029 |     - |    36M |   0 | 825 | 298 | 873 |  12k|314 |   0 |   0 | 3.539232e+02 |      --      |    Inf | unknown
 34.9s|     1 |     0 |256124 |     - |    36M |   0 | 825 | 298 | 894 |  12k|315 |   0 |   0 | 3.539234e+02 |      --      |    Inf | unknown
 34.9s|     1 |     0 |256186 |     - |    36M |   0 | 825 | 298 | 925 |  12k|316 |   0 |   0 | 3.539850e+02 |      --      |    Inf | unknown
 34.9s|     1 |     0 |256249 |     - |    36M |   0 | 825 | 298 | 776 |  12k|317 |   0 |   0 | 3.539855e+02 |      --      |    Inf | unknown
 34.9s|     1 |     0 |256329 |     - |    36M |   0 | 825 | 298 | 807 |  12k|318 |   0 |   0 | 3.542110e+02 |      --      |    Inf | unknown
 35.0s|     1 |     0 |256399 |     - |    36M |   0 | 825 | 298 | 754 |  12k|319 |   0 |   0 | 3.542120e+02 |      --      |    Inf | unknown
 35.0s|     1 |     0 |256539 |     - |    36M |   0 | 825 | 298 | 789 |  13k|320 |   0 |   0 | 3.548107e+02 |      --      |    Inf | unknown
 35.0s|     1 |     0 |257265 |     - |    36M |   0 | 825 | 298 | 808 |  13k|321 |   0 |   0 | 3.548128e+02 |      --      |    Inf | unknown
 35.0s|     1 |     0 |257374 |     - |    36M |   0 | 825 | 298 | 851 |  13k|322 |   0 |   0 | 3.548675e+02 |      --      |    Inf | unknown
 35.1s|     1 |     0 |258738 |     - |    36M |   0 | 825 | 298 | 858 |  13k|323 |   0 |   0 | 3.548677e+02 |      --      |    Inf | unknown
 35.2s|     1 |     0 |258807 |     - |    36M |   0 | 825 | 298 | 894 |  13k|324 |   0 |   0 | 3.549662e+02 |      --      |    Inf | unknown
 35.2s|     1 |     0 |258857 |     - |    36M |   0 | 825 | 298 | 903 |  13k|325 |   0 |   0 | 3.549664e+02 |      --      |    Inf | unknown
 35.2s|     1 |     0 |258950 |     - |    36M |   0 | 825 | 298 | 941 |  13k|326 |   0 |   0 | 3.551079e+02 |      --      |    Inf | unknown
 35.2s|     1 |     0 |258996 |     - |    36M |   0 | 825 | 298 | 950 |  13k|327 |   0 |   0 | 3.551080e+02 |      --      |    Inf | unknown
 35.2s|     1 |     0 |259141 |     - |    36M |   0 | 825 | 298 | 984 |  13k|328 |   0 |   0 | 3.552656e+02 |      --      |    Inf | unknown
 time | node  | left  |LP iter|LP it/n|mem/heur|mdpt |vars |cons |rows |cuts |sepa|confs|strbr|  dualbound   | primalbound  |  gap   | compl. 
 35.3s|     1 |     0 |259204 |     - |    36M |   0 | 825 | 298 | 991 |  13k|329 |   0 |   0 | 3.552744e+02 |      --      |    Inf | unknown
 35.3s|     1 |     0 |259344 |     - |    36M |   0 | 825 | 298 |1025 |  13k|330 |   0 |   0 | 3.557807e+02 |      --      |    Inf | unknown
 35.4s|     1 |     0 |259510 |     - |    36M |   0 | 825 | 298 | 771 |  13k|331 |   0 |   0 | 3.558758e+02 |      --      |    Inf | unknown
 35.4s|     1 |     0 |259593 |     - |    36M |   0 | 825 | 298 | 817 |  13k|332 |   0 |   0 | 3.561432e+02 |      --      |    Inf | unknown
 35.4s|     1 |     0 |259780 |     - |    36M |   0 | 825 | 298 | 860 |  13k|333 |   0 |   0 | 3.561932e+02 |      --      |    Inf | unknown
 35.4s|     1 |     0 |259835 |     - |    36M |   0 | 825 | 298 | 896 |  13k|334 |   0 |   0 | 3.563649e+02 |      --      |    Inf | unknown
 35.5s|     1 |     0 |259899 |     - |    36M |   0 | 825 | 298 | 912 |  13k|335 |   0 |   0 | 3.563661e+02 |      --      |    Inf | unknown
 35.5s|     1 |     0 |259931 |     - |    36M |   0 | 825 | 298 | 948 |  13k|336 |   0 |   0 | 3.563749e+02 |      --      |    Inf | unknown
 35.5s|     1 |     0 |259961 |     - |    36M |   0 | 825 | 298 | 803 |  13k|337 |   0 |   0 | 3.563750e+02 |      --      |    Inf | unknown
 35.5s|     1 |     0 |259994 |     - |    36M |   0 | 825 | 298 | 832 |  13k|338 |   0 |   0 | 3.564910e+02 |      --      |    Inf | unknown
 35.6s|     1 |     0 |260065 |     - |    36M |   0 | 825 | 298 | 843 |  13k|339 |   0 |   0 | 3.564911e+02 |      --      |    Inf | unknown
 35.6s|     1 |     0 |260102 |     - |    36M |   0 | 825 | 298 | 873 |  13k|340 |   0 |   0 | 3.565323e+02 |      --      |    Inf | unknown
 35.7s|     1 |     0 |261380 |     - |    36M |   0 | 825 | 298 | 743 |  13k|341 |   0 |   0 | 3.565323e+02 |      --      |    Inf | unknown
 35.7s|     1 |     0 |261489 |     - |    36M |   0 | 825 | 298 | 770 |  13k|342 |   0 |   0 | 3.570035e+02 |      --      |    Inf | unknown
 35.7s|     1 |     0 |261597 |     - |    36M |   0 | 825 | 298 | 802 |  13k|343 |   0 |   0 | 3.570076e+02 |      --      |    Inf | unknown
 time | node  | left  |LP iter|LP it/n|mem/heur|mdpt |vars |cons |rows |cuts |sepa|confs|strbr|  dualbound   | primalbound  |  gap   | compl. 
 35.7s|     1 |     0 |261656 |     - |    36M |   0 | 825 | 298 | 716 |  13k|344 |   0 |   0 | 3.570178e+02 |      --      |    Inf | unknown
 35.8s|     1 |     0 |262966 |     - |    36M |   0 | 825 | 298 | 764 |  13k|345 |   0 |   0 | 3.570189e+02 |      --      |    Inf | unknown
 35.8s|     1 |     0 |262997 |     - |    36M |   0 | 825 | 298 | 800 |  13k|346 |   0 |   0 | 3.570199e+02 |      --      |    Inf | unknown
 35.9s|     1 |     0 |264356 |     - |    36M |   0 | 825 | 298 | 774 |  13k|347 |   0 |   0 | 3.570203e+02 |      --      |    Inf | unknown
 35.9s|     1 |     0 |264398 |     - |    36M |   0 | 825 | 298 | 810 |  13k|348 |   0 |   0 | 3.570404e+02 |      --      |    Inf | unknown
 36.0s|     1 |     0 |265778 |     - |    36M |   0 | 825 | 298 | 819 |  13k|349 |   0 |   0 | 3.570405e+02 |      --      |    Inf | unknown
 36.0s|     1 |     0 |265885 |     - |    36M |   0 | 825 | 298 | 849 |  13k|350 |   0 |   0 | 3.571288e+02 |      --      |    Inf | unknown
 36.1s|     1 |     0 |265921 |     - |    36M |   0 | 825 | 298 | 860 |  13k|351 |   0 |   0 | 3.571301e+02 |      --      |    Inf | unknown
 36.1s|     1 |     0 |266076 |     - |    36M |   0 | 825 | 298 | 899 |  13k|352 |   0 |   0 | 3.573070e+02 |      --      |    Inf | unknown
 36.2s|     1 |     0 |267572 |     - |    36M |   0 | 825 | 298 | 776 |  13k|353 |   0 |   0 | 3.573120e+02 |      --      |    Inf | unknown
 36.2s|     1 |     0 |267654 |     - |    36M |   0 | 825 | 298 | 810 |  13k|354 |   0 |   0 | 3.573955e+02 |      --      |    Inf | unknown
 36.3s|     1 |     0 |267769 |     - |    36M |   0 | 825 | 298 | 835 |  13k|355 |   0 |   0 | 3.573972e+02 |      --      |    Inf | unknown
 36.3s|     1 |     0 |267853 |     - |    36M |   0 | 825 | 298 | 867 |  13k|356 |   0 |   0 | 3.575208e+02 |      --      |    Inf | unknown
 36.3s|     1 |     0 |267873 |     - |    36M |   0 | 825 | 298 | 871 |  13k|357 |   0 |   0 | 3.575210e+02 |      --      |    Inf | unknown
 36.3s|     1 |     0 |267911 |     - |    36M |   0 | 825 | 298 | 901 |  13k|358 |   0 |   0 | 3.575450e+02 |      --      |    Inf | unknown
 time | node  | left  |LP iter|LP it/n|mem/heur|mdpt |vars |cons |rows |cuts |sepa|confs|strbr|  dualbound   | primalbound  |  gap   | compl. 
 36.4s|     1 |     0 |269290 |     - |    36M |   0 | 825 | 298 | 905 |  13k|359 |   0 |   0 | 3.575450e+02 |      --      |    Inf | unknown
 36.4s|     1 |     0 |269436 |     - |    36M |   0 | 825 | 298 | 930 |  14k|360 |   0 |   0 | 3.581705e+02 |      --      |    Inf | unknown
 36.5s|     1 |     0 |269505 |     - |    36M |   0 | 825 | 298 | 949 |  14k|361 |   0 |   0 | 3.581758e+02 |      --      |    Inf | unknown
 36.5s|     1 |     0 |269549 |     - |    36M |   0 | 825 | 298 | 986 |  14k|362 |   0 |   0 | 3.581885e+02 |      --      |    Inf | unknown
 36.6s|     1 |     0 |271040 |     - |    36M |   0 | 825 | 298 | 993 |  14k|363 |   0 |   0 | 3.582187e+02 |      --      |    Inf | unknown
 36.6s|     1 |     0 |271263 |     - |    36M |   0 | 825 | 298 |1041 |  14k|364 |   0 |   0 | 3.582558e+02 |      --      |    Inf | unknown
 36.6s|     1 |     0 |271377 |     - |    36M |   0 | 825 | 298 |1065 |  14k|365 |   0 |   0 | 3.582588e+02 |      --      |    Inf | unknown
 36.7s|     1 |     0 |271578 |     - |    36M |   0 | 825 | 298 |1104 |  14k|366 |   0 |   0 | 3.583367e+02 |      --      |    Inf | unknown
 36.7s|     1 |     0 |271607 |     - |    36M |   0 | 825 | 298 | 771 |  14k|367 |   0 |   0 | 3.583373e+02 |      --      |    Inf | unknown
 36.7s|     1 |     0 |271738 |     - |    36M |   0 | 825 | 298 | 808 |  14k|368 |   0 |   0 | 3.584606e+02 |      --      |    Inf | unknown
 36.8s|     1 |     0 |273194 |     - |    36M |   0 | 825 | 298 | 846 |  14k|369 |   0 |   0 | 3.584645e+02 |      --      |    Inf | unknown
 36.8s|     1 |     0 |273219 |     - |    36M |   0 | 825 | 298 | 877 |  14k|370 |   0 |   0 | 3.584648e+02 |      --      |    Inf | unknown
 36.9s|     1 |     0 |273267 |     - |    36M |   0 | 825 | 298 | 886 |  14k|371 |   0 |   0 | 3.584654e+02 |      --      |    Inf | unknown
 36.9s|     1 |     0 |273318 |     - |    36M |   0 | 825 | 298 | 918 |  14k|372 |   0 |   0 | 3.584941e+02 |      --      |    Inf | unknown
 37.0s|     1 |     0 |274652 |     - |    36M |   0 | 825 | 298 | 925 |  14k|373 |   0 |   0 | 3.584942e+02 |      --      |    Inf | unknown
...